<?xml version="1.0" encoding="UTF-8"?>

<!-- generated on 2023-04-06 21:48:08 by Eclipse SUMO duarouter Version 1.16.0
<configuration xmlns:xsi="http://www.w3.org/2001/XMLSchema-instance" xsi:noNamespaceSchemaLocation="http://sumo.dlr.de/xsd/duarouterConfiguration.xsd">

    <input>
        <net-file value="sumotestmap.net.xml"/>
        <route-files value="trial.trips.xml"/>
    </input>

    <output>
        <output-file value="routes.rou.xml"/>
    </output>

    <report>
        <ignore-errors value="true"/>
    </report>
	<routeChoiceModel type="Stochastic">
		<param key="distributions" value="uniform(0.1, 0.9)"/>
		<param key="weights" value="1, 2, 3"/>
	</routeChoiceModel>
</configuration>
-->

<routes xmlns:xsi="http://www.w3.org/2001/XMLSchema-instance" xsi:noNamespaceSchemaLocation="http://sumo.dlr.de/xsd/routes_file.xsd">

    <vehicle id="0" depart="0.00">
        <route edges="4987249#2 4987249#3 4987249#4 4987249#5 4987249#6 4987249#7 4987249#8 4987249#9 4987249#10 4987249#11 4987249#12 4987249#13 4987249#14 4987249#15 4987249#16 4987249#17 4987249#18 4987249#19 4987249#20 4987249#21 4987249#22 4987249#23 4987249#24 4987249#25 4987249#26 4987249#27 4987249#28 4987249#29 4987249#30 4987249#31 4987249#32 4987249#33 4987249#34 4987249#35 4987249#36 4987249#37 4987249#38 4987249#39 4987249#40 4987249#41 4987249#42 4987249#43 4987249#44 4987249#45 4987249#46 4987249#47 4987249#48 4987249#49 4987249#50 4987249#51 4987249#52 4987249#53 4987249#54 4987249#55 4987249#56 4987210#0 4987210#1 -700840146#0 -24926442#2"/>
    </vehicle>
    <vehicle id="1" depart="1.00">
        <route edges="-771326027#3 -771326027#2 -771326027#1 -771326027#0 828126964#16 890218773#0 890218773#1 890218773#2 890218773#3 890218773#4 890218773#5 890218773#6 890218773#7 843575350 701529973#1 701529973#2 701529973#3 -704539034 25087607#0 25087607#1 24667122#89 24667122#90 24667122#91 24667122#92 24667122#93 890643507 765991599 696072697#12 4987249#0 4987249#1 4987249#2 4987249#3 4987249#4 4987249#5 4987249#6 4987249#7 4987249#8 4987249#9 4987249#10 4987249#11 4987249#12 4987249#13 4987249#14 4987249#15 4987249#16 4987249#17 4987249#18 4987249#19 4987249#20 4987249#21 4987249#22 4987249#23 4987249#24 4987249#25 4987249#26 4987249#27 4987249#28 4987249#29 4987249#30 4987249#31 4987249#32 4987249#33 4987249#34 4987249#35 4987249#36 4987249#37 4987249#38 4987249#39 4987249#40 4987249#41 4987249#42 4987249#43 4987249#44 4987249#45 4987249#46 4987249#47 4987249#48 4987249#49 4987249#50 4987249#51 4987249#52 4987249#53 4987249#54 4987249#55 4987249#56 4987249#57 4987249#58 4987249#59 4987249#60 4987249#61 4987249#62 4987249#63 4987249#64 4987249#65 4987249#66 4987249#67 4987249#68 4987249#69 4987249#70 4987249#71 4987249#72 4987249#73 4987249#74 4987249#75 4987249#76 4987249#77 4987249#78 4987249#79 4987249#80 4987249#81 4987249#82 4987249#83 4987249#84 4987249#85 4987249#86 4987249#87 4987249#88 4987249#89 4987249#90 4987249#91 25043984#0 25043984#1 25043984#2 25043984#3 25043984#4 25043984#5 28496310#0 -700840147#0"/>
    </vehicle>
    <vehicle id="2" depart="2.00">
        <route edges="645419926#6 645419926#7 645419926#8 4987249#61 4987249#62 4987249#63 4987249#64 4987249#65 4987249#66 4987249#67 4987249#68 4987249#69 4987249#70 4987249#71 4987249#72 4987249#73 4987249#74 4987249#75 4987249#76 4987249#77 4987249#78 4987249#79 4987249#80 4987249#81 4987249#82 4987249#83 4987249#84 4987249#85 4987249#86 4987249#87 4987249#88 4987249#89 4987249#90 4987249#91 4987249#92 4987249#93 4987249#94 4987249#95 4987249#96 4987249#97"/>
    </vehicle>
    <vehicle id="3" depart="3.00">
        <route edges="701529973#17 28496650#0 28496650#1 28496650#2 28496650#3 28496650#4 28496650#5 28496650#6 28496650#7 694201304#0 694201304#1 28496650#10 24667122#33 24667122#34 24667122#35 24667122#36 24667122#37 24667122#38 24667122#39 24667122#40 24667122#41 24667122#42 24667122#43 24667122#44 24667122#45 24667122#46 24667122#47 24667122#48 24667122#49 771970759 4987249#44 4987249#45 4987249#46 4987249#47 4987249#48 4987249#49 4987249#50 4987249#51 4987249#52 4987249#53 4987249#54 4987249#55 4987249#56 4987249#57 4987249#58 4987249#59 4987249#60 4987249#61 4987249#62 4987249#63 4987249#64 4987249#65 4987249#66 4987249#67 4987249#68 4987249#69 4987249#70 4987249#71 4987249#72 4987249#73 4987249#74 4987249#75 4987249#76 4987249#77 4987249#78 4987249#79 4987249#80 4987249#81 4987249#82 4987249#83 4987249#84 4987249#85 4987249#86 4987249#87 4987249#88 4987249#89 4987249#90 4987249#91 25043984#0 25043984#1 25043984#2 25043984#3 25043984#4 25043984#5 28496310#0 28496310#1 28496310#2 28496310#3 28496310#4 -28496310#4"/>
    </vehicle>
    <vehicle id="4" depart="4.00">
        <route edges="24926458#6 -24926458#6 -24926458#5 -24926458#4 -24926458#3"/>
    </vehicle>
    <vehicle id="5" depart="5.00">
        <route edges="-700632938#2 700632938#2 700632938#3 700632938#4 30073689#1 700632939#5 645363766 694204809#3 694204809#4 24784499#0 24784499#1 24784499#2 24784499#3 24667122#44 24667122#45 24667122#46 24667122#47 24667122#48 24667122#49 771970759 4987249#44 4987249#45 4987249#46 4987249#47 4987249#48 4987249#49 4987249#50 4987249#51 4987249#52 4987249#53 4987249#54 4987249#55 4987249#56 4987249#57 4987249#58 4987249#59 4987249#60 4987249#61 4987249#62 4987249#63 4987249#64 4987249#65 4987249#66 4987249#67 4987249#68 4987249#69 4987249#70 4987249#71 4987249#72 4987249#73 4987249#74 4987249#75 4987249#76 4987249#77 4987249#78 4987249#79 4987249#80 4987249#81 4987249#82 4987249#83 4987249#84 4987249#85 4987249#86 4987249#87 4987249#88 4987249#89 4987249#90 4987249#91 25043984#0 25043984#1 25043984#2 25043984#3 25043984#4 25043984#5 28496310#0 28496310#1 28496310#2 28496310#3 28496310#4 28496310#5 28496310#6 28496310#7 28496310#8 28496310#9"/>
    </vehicle>
    <vehicle id="7" depart="7.00">
        <route edges="4987249#37 4987249#38 765710545 24667122#53 24667122#54 24667122#55 24667122#56 24667122#57 24667122#58 24667122#59 24667122#60 24667122#61 24667122#62 24667122#63 24667122#64 24667122#65 24667122#66 24667122#67 24667122#68 24667122#69 24667122#70 24667122#71 24667122#72 24667122#73 24667122#74 24667122#75 24667122#76 24667122#77 24667122#78 24667122#79 24667122#80 24667122#81 24667122#82 24667122#83 24667122#84 24667122#85 24667122#86 24667122#87 24667122#88 24667122#89 24667122#90 24667122#91 24667122#92 24667122#93 890643507 890643506 30037815#0 30037815#1 694200124#0 694200124#1 694200124#2 30038401#0 30038401#1"/>
    </vehicle>
    <vehicle id="9" depart="9.00">
        <route edges="700148837#10 700148837#11 700148837#12 700148837#13 700148837#14 700148837#15 700148837#16 700148837#17 700148837#18 769712194 24783980#2 24783980#3 24783970#4 24783970#5 24783970#0 24783975#0 24783975#1 770028814#0 770028814#1 770028814#2 -231759890#1 -231759890#0"/>
    </vehicle>
    <vehicle id="12" depart="12.00">
        <route edges="771321486#1 771321486#2 771321486#3 771321486#4 771321486#5 828126964#7 828126964#8 828126964#9 828126964#10 828126964#11 828126964#12 828126964#13 828126964#14 828126964#15 828126964#16 890218773#0 890218773#1 890218773#2 890218773#3 890218773#4 890218773#5 890218773#6 890218773#7 843575350 701529973#1 701529973#2 701529973#3 701529973#4 24667244#0 24667244#1 24667244#2 24667244#3 24667244#4 1002335356 24667207#1 24667207#2"/>
    </vehicle>
    <vehicle id="13" depart="13.00">
        <route edges="-28518556#1 -28518556#0 24926469#3 26752039#11 26752039#12 700806892#1 700806892#2 700806892#3 28664939#0 28664939#1 28664939#2 28664939#3 28664939#4 28664939#5 28664939#6 28664939#7 28664939#8 28664939#9 28664939#10 28664939#11 28664939#12 28664939#13 28664939#14 28664939#15 24764569#6 24764569#7 24764569#8 24764569#9 24764569#10 24764569#11 765991598 890643507 890643506 30037815#0 30037829#0 30037829#1 30037829#2 -30037829#2"/>
    </vehicle>
    <vehicle id="15" depart="15.00">
        <route edges="700148834#3 700148834#4 24801830#0 24801830#1 24801830#2 24801830#3 24801830#4 24801830#5 24801830#6 24801830#7 4987249#51 4987249#52 4987249#53 4987249#54 4987249#55 4987249#56 4987249#57 4987249#58 4987249#59 4987249#60 4987249#61 4987249#62 4987249#63 4987249#64 4987249#65 4987249#66 4987249#67 4987249#68 4987249#69 4987249#70 4987249#71 4987249#72 4987249#73 4987249#74 4987249#75 4987249#76 161904723 24667122#17 24667122#18 24667122#19 24667122#20 24667122#21 24667122#22 24667122#23 24667122#24 24667122#25 24667122#26 24667122#27 24667122#28 24667122#29 24667122#30 24667122#31 24667122#32 24667122#33 24667122#34 24667122#35 24667122#36 24667122#37 24667122#38 645363763#0 645363763#1 645419927#0 645419927#1"/>
    </vehicle>
    <vehicle id="18" depart="18.00">
        <route edges="700632939#0 28496650#5 28496650#6 28496650#7 694201304#0 694201304#1 28496650#10 24667122#33 24667122#34 24667122#35 24667122#36 24667122#37 24667122#38 24667122#39 24667122#40 24667122#41 24667122#42 24667122#43 24667122#44 24667122#45 24667122#46 24667122#47 24667122#48 24667122#49 771970759 4987249#44 4987249#45 4987249#46 4987249#47 4987249#48 4987249#49 4987249#50 4987249#51 4987249#52 4987249#53 4987249#54 4987249#55 4987249#56 4987210#0 4987210#1 4987210#2 4987210#3 4987210#4 4987210#5 4987210#6 4987210#7 771403658 700806890#3 28309695#0 28309695#1 28309695#2 28309695#3 28309695#4 28309695#5 28309695#6 28309695#7 28309695#8 28309695#9 28309695#10 28309695#11 772191685 700652476#0 -33070410#1 4987231#1"/>
    </vehicle>
    <vehicle id="19" depart="19.00">
        <route edges="701296898#1 696072697#3 696072697#4 696072697#5 696072697#6 696072697#7 696072697#8 696072697#9 696072697#10 696072697#11 696072697#12 4987249#0 4987249#1 4987249#2 4987249#3 4987249#4 4987249#5 4987249#6 4987249#7 4987249#8 4987249#9 4987249#10 4987249#11 4987249#12 4987249#13 4987249#14 4987249#15 4987249#16 4987249#17 4987249#18 4987249#19 4987249#20 4987249#21 4987249#22 4987249#23 4987249#24 4987249#25 4987249#26 4987249#27 4987249#28 4987249#29 4987249#30 4987249#31 4987249#32 4987249#33 4987249#34 4987249#35 4987249#36 4987249#37 4987249#38 4987249#39 4987249#40 4987249#41 4987249#42 4987249#43 4987249#44 4987249#45 4987249#46 4987249#47 4987249#48 4987249#49 4987249#50 4987249#51 4987249#52 4987249#53 4987249#54 4987249#55 4987249#56 4987249#57 4987249#58 4987249#59 4987249#60 4987249#61 4987249#62 4987249#63 4987249#64 4987249#65 4987249#66 4987249#67 4987249#68 4987249#69 4987249#70 4987249#71 4987249#72 4987249#73 4987249#74 4987249#75 4987249#76 4987249#77 4987249#78 4987249#79 4987249#80 4987249#81 4987249#82 4987249#83 4987249#84 4987249#85 4987249#86 4987249#87 4987249#88 4987249#89 4987249#90 4987249#91 25043984#0 25043984#1 25043984#2 25043984#3 25043984#4 25043984#5 28496310#0 28496310#1 41114831#3"/>
    </vehicle>
    <vehicle id="20" depart="20.00">
        <route edges="645341343#4 646964293#0 -646964293#0 -645341343#4 -645341343#3 -645341343#2 -645341343#1 -645341343#0 771321486#1 771321486#2 771321486#3 771321486#4 771321486#5 828126964#7 828126964#8 828126964#9 828126964#10 828126964#11 828126964#12 828126964#13 828126964#14 828126964#15 828126964#16 890218773#0 890218773#1 890218773#2 890218773#3 890218773#4 890218773#5 890218773#6 890218773#7 843575350 701529973#1 701529973#2 701529973#3 -704539034 25087607#0 25087607#1 24667122#89 24667122#90 24667122#91 24667122#92 24667122#93 890643507 765991599 696072697#12 4987249#0 4987249#1 4987249#2 4987249#3 4987249#4 4987249#5 4987249#6 4987249#7 4987249#8 4987249#9 4987249#10 4987249#11 4987249#12 4987249#13 4987249#14 4987249#15 4987249#16 4987249#17 4987249#18 4987249#19 4987249#20 4987249#21 4987249#22 4987249#23 4987249#24 4987249#25 4987249#26 4987249#27 4987249#28 4987249#29 4987249#30 4987249#31 4987249#32 4987249#33 4987249#34 4987249#35 4987249#36 4987249#37 4987249#38 4987249#39 4987249#40 4987249#41 4987249#42 4987249#43 4987249#44 4987249#45 4987249#46 4987249#47 4987249#48 4987249#49 4987249#50 4987249#51 4987249#52 4987249#53 4987249#54 4987249#55 4987249#56 4987249#57 4987249#58 4987249#59 4987249#60 4987249#61 4987249#62 4987249#63 4987249#64 4987249#65 4987249#66 4987249#67 4987249#68 4987249#69 4987249#70 4987249#71 4987249#72 4987249#73 4987249#74 4987249#75 4987249#76 4987249#77 4987249#78 4987249#79 4987249#80 4987249#81 4987249#82 4987249#83 4987249#84 4987249#85 4987249#86 4987249#87 4987249#88 4987249#89 4987249#90 4987249#91 25043984#0 25043984#1 25043984#2 25043984#3 24926513#0 24926513#1 -24926513#1"/>
    </vehicle>
    <vehicle id="21" depart="21.00">
        <route edges="-700840147#2 24926567 41114831#4 41114831#5 24926513#2 24926513#3 24926513#4 24926513#5 24926513#6 24926513#7 24926513#8 24926513#9 24926510 -24926500#3 -24926500#2 24926495 4987249#67 4987249#68 4987249#69 4987249#70 4987249#71 4987249#72 4987249#73 4987249#74 4987249#75 4987249#76 161904723 24667122#17 24667122#18"/>
    </vehicle>
    <vehicle id="23" depart="23.00">
        <route edges="-30037868#2 -30037868#1 -30037868#0 859428694#3 859428694#4 859428694#5 24852990#1 24852990#2 24852990#3 24852990#4 24852990#5 24852990#6 24852990#7 24852990#8 765991599 696072697#12 4987249#0 4987249#1 4987249#2 4987249#3 4987249#4 4987249#5 4987249#6 4987249#7 4987249#8 4987249#9 4987249#10 4987249#11 4987249#12 4987249#13 4987249#14 4987249#15 4987249#16 4987249#17 4987249#18 4987249#19 4987249#20 4987249#21 4987249#22 4987249#23 4987249#24 4987249#25 4987249#26 4987249#27 4987249#28 4987249#29 4987249#30 4987249#31 4987249#32 4987249#33 4987249#34 4987249#35 4987249#36 4987249#37 4987249#38 4987249#39 4987249#40 4987249#41 4987249#42 4987249#43 4987249#44 4987249#45 4987249#46 4987249#47 4987249#48 4987249#49 4987249#50 4987249#51 4987249#52 4987249#53 4987249#54 4987249#55 4987249#56 4987210#0 4987210#1 4987210#2 4987210#3 4987210#4 4987210#5 4987210#6 4987210#7 771403657 645419905#1 645419905#2 645419905#3 645419905#4 645419905#5 700806892#5 27529366#0 24926248#2 24926248#3 24926469#5 145203583#0"/>
    </vehicle>
    <vehicle id="24" depart="24.00">
        <route edges="4987249#13 4987249#14 4987249#15 4987249#16 4987249#17 4987249#18 4987249#19 4987249#20 4987249#21 4987249#22 4987249#23 4987249#24 4987249#25 4987249#26 4987249#27 4987249#28 4987249#29 4987249#30 4987249#31 4987249#32 4987249#33 4987249#34 4987249#35 4987249#36 4987249#37 4987249#38 4987249#39 4987249#40 4987249#41 4987249#42 4987249#43 4987249#44 4987249#45 4987249#46 4987249#47 4987249#48 4987249#49 4987249#50 4987249#51 4987249#52 4987249#53 4987249#54 4987249#55 4987249#56 4987249#57 4987249#58 4987249#59 4987249#60 4987249#61 4987249#62 4987249#63 4987249#64 4987249#65 4987249#66 4987249#67 4987249#68 4987249#69 4987249#70 4987249#71 4987249#72 4987249#73 4987249#74 4987249#75 4987249#76 161904723 24667122#17 24667122#18 24667122#19 24667122#20 24667122#21 24667122#22 24667122#23 24667122#24 24667122#25 24667122#26 24667122#27 24784553#0"/>
    </vehicle>
    <vehicle id="26" depart="26.00">
        <route edges="-703364305#1 703364305#1 703364305#2 703364305#3 -646964286#1 -646964286#0 890218773#1 890218773#2 890218773#3 890218773#4 890218773#5 890218773#6 890218773#7 843575350 701529973#1 701529973#2 701529973#3 -704539034 25087607#0 25087607#1 24667122#89 24667122#90 24667122#91 24667122#92 24667122#93 890643507 765991599 649608322#0 649608322#1 649608322#2 649608322#3 649608322#4 649608322#5 700148837#1 700148837#2 700148837#3 700148837#4 700148837#5 700148837#6 700148837#7 700148837#8 700148837#9 700148837#10 700148837#11 700148837#12 700148837#13 700148837#14 700148837#15 700148837#16 700148837#17 700148837#18 701330347#8 28309695#2 28309695#3 28309695#4 28309695#5 28309695#6 24887172#0 705713868"/>
    </vehicle>
    <vehicle id="28" depart="28.00">
        <route edges="-645363777#2 645363777#2 700632940#1 28496650#4 28496650#5 28496650#6 28496650#7 694201304#0 694201304#1 28496650#10 24667122#33 24667122#34 24667122#35 24667122#36 24667122#37 24667122#38 645363763#0 645363763#1 645419927#0"/>
    </vehicle>
    <vehicle id="29" depart="29.00">
        <route edges="-645341343#3 -645341343#2 -645341343#1 -645341343#0 771321486#1 771321486#2 771321486#3 771321486#4 771321486#5 828126964#7 828126964#8 828126964#9 828126964#10 828126964#11 828126964#12 828126964#13 828126964#14 828126964#15 828126964#16 890218773#0 890218773#1 890218773#2 890218773#3 890218773#4 890218773#5 890218773#6 890218773#7 843575350 701529973#1 701529973#2 701529973#3 -704539034 25087607#0 25087607#1 24667122#89 24667122#90 24667122#91 24667122#92 24667122#93 890643507 890643506 30037815#0 30037829#0 30037829#1 30037829#2 24852990#6 24852990#7"/>
    </vehicle>
    <vehicle id="30" depart="30.00">
        <route edges="859428694#4 859428694#5 24852990#1 24852990#2 24852990#3 24852990#4 24852990#5 24852990#6 24852990#7 24852990#8 765991599 696072697#12 4987249#0 4987249#1 4987249#2 4987249#3 4987249#4 4987249#5 4987249#6 4987249#7 4987249#8 4987249#9 4987249#10 4987249#11 4987249#12 4987249#13 4987249#14 4987249#15 4987249#16 4987249#17 4987249#18 4987249#19 4987249#20 4987249#21 4987249#22 4987249#23 4987249#24 4987249#25 4987249#26 4987249#27 4987249#28 4987249#29 4987249#30 4987249#31 4987249#32 4987249#33 4987249#34 4987249#35 4987249#36"/>
    </vehicle>
    <vehicle id="32" depart="32.00">
        <route edges="700671904#4 700671904#5 701529973#0 701529973#1 701529973#2 701529973#3 -704539034 25087607#0 25087607#1 24667122#89 24667122#90 24667122#91 24667122#92 24667122#93 890643507 890643506 30037815#0 30037815#1 694200124#0"/>
    </vehicle>
    <vehicle id="33" depart="33.00">
        <route edges="-700840147#4 24926513#1 24926513#2 24926513#3 24926513#4 24926513#5 24926513#6 24926513#7 24926513#8 24926513#9 24926513#10 -24926458#11 -24926458#10 -24926458#9 -24926458#8 -24926458#7"/>
    </vehicle>
    <vehicle id="34" depart="34.00">
        <route edges="24667122#44 24667122#45 24667122#46 24667122#47 24667122#48 24667122#49 771970759 4987249#44 4987249#45 4987249#46 4987249#47 4987249#48 4987249#49 4987249#50 4987249#51 4987249#52 4987249#53 4987249#54 4987249#55 4987249#56 4987249#57 4987249#58 4987249#59 4987249#60 4987249#61 4987249#62 4987249#63 4987249#64 4987249#65 4987249#66 4987249#67 505582583#0 -24926497 24926500#3 -24926510 -24926513#9 -24926513#8 -24926568#2 -24926568#1 -24926568#0 -28496310#10 24926558#0 -771875896#0"/>
    </vehicle>
    <vehicle id="35" depart="35.00">
        <route edges="-694211652 771326027#3 771326027#4 47396883#14 47396883#15 47396883#16 47378150#0 47378150#1 47378150#2 47378150#3 47378150#4 707378481#7 707378481#8 707378481#9 707378481#10 707378481#11 707378481#12 707378481#13"/>
    </vehicle>
    <vehicle id="36" depart="36.00">
        <route edges="701372202 1131706977#1 28664939#15 24764569#6 24764569#7 24764569#8 24764569#9 24764569#10 152470846 4987249#2 4987249#3 4987249#4 4987249#5 4987249#6 4987249#7 4987249#8 4987249#9 4987249#10 4987249#11 4987249#12 4987249#13 4987249#14 4987249#15 4987249#16 4987249#17 4987249#18 4987249#19 4987249#20 4987249#21 4987249#22 4987249#23 4987249#24 4987249#25 4987249#26 4987249#27 4987249#28 4987249#29 4987249#30 4987249#31 4987249#32 4987249#33 4987249#34 4987249#35 4987249#36 4987249#37 4987249#38 765710545 24667122#53 24667122#54 24667122#55 24667122#56 24667122#57 24667122#58 24667122#59 24667122#60"/>
    </vehicle>
    <vehicle id="37" depart="37.00">
        <route edges="4987249#46 4987249#47 4987249#48 4987249#49 4987249#50 4987249#51 4987249#52 4987249#53 4987249#54 4987249#55 4987249#56 4987210#0 4987210#1 4987210#2 4987210#3 4987210#4 4987210#5 4987210#6 4987210#7 771403657 645419905#1 645419905#2 645419905#3 645419905#4 645419905#5 700806892#5 27529366#0 27529366#1 27529366#2 27529366#3 27529366#4 4987244#3 24926245#0"/>
    </vehicle>
    <vehicle id="38" depart="38.00">
        <route edges="702840499 646964291#1 646964291#2 702840503#1 702840503#2 702840502 771321486#5 828126964#7 828126964#8 828126964#9 828126964#10 828126964#11 828126964#12 828126964#13 828126964#14 828126964#15 828126964#16 890218773#0 890218773#1 890218773#2 890218773#3 890218773#4 890218773#5 890218773#6 890218773#7 843575350 701529973#1 701529973#2 701529973#3 701529973#4 701529973#5 701529973#6 701529973#7 701529973#8 701529973#9 701529973#10 701529973#11 701529973#12 701529973#13 701529973#14 701529973#15 701529973#16 701529973#17 701529973#18 701529973#19 -158293837#2 -158293837#1 -158293837#0 -24933937#1 -24933937#0 24933931#3"/>
    </vehicle>
    <vehicle id="39" depart="39.00">
        <route edges="-703143665#2 -703143665#1 -703143665#0 771321486#3 771321486#4 -702840502 -702840503#2"/>
    </vehicle>
    <vehicle id="40" depart="40.00">
        <route edges="30985684#3 30985684#4 47396883#26 47396883#27 47396883#28 -703143666#1 -706596898"/>
    </vehicle>
    <vehicle id="42" depart="42.00">
        <route edges="24887171#0 -24887171#0 701330347#11 701330347#12 701330347#13 24933855 4987210#4 -24926456#1 -24926456#0 877924740#0 877924740#1 28518556#0 28518556#1 24926458#5 24926458#6 -28496310#12 700840145#0 -700840145#0"/>
    </vehicle>
    <vehicle id="43" depart="43.00">
        <route edges="905843865 -28518556#2 -28518556#1 -28518556#0 -877924740#1 -877924740#0 645419926#1 645419926#2 645419926#3 645419926#4 645419926#5 645419926#6 645419926#7 645419926#8 4987249#61 4987249#62 4987249#63 4987249#64 4987249#65 4987249#66 4987249#67 4987249#68 4987249#69 4987249#70 4987249#71 4987249#72 4987249#73 4987249#74 4987249#75 4987249#76 161904723 24667122#17 24667122#18 24667122#19 24667122#20 24667122#21 24667122#22 24667122#23 24667122#24 24667122#25 24667122#26 24667122#27 24784553#0 24784553#1 694202023#0 694202023#1 24784553#4 24784553#5 24784553#6 24784553#7 24784553#8 24784553#9 694202022 28496650#2 28496650#3 28496650#4"/>
    </vehicle>
    <vehicle id="44" depart="44.00">
        <route edges="-28518554#1 -28518554#0 -700840147#4 24926513#1 24926513#2 24926513#3 24926513#4 24926513#5 24926513#6 24926513#7 24926513#8 24926513#9 24926513#10 24926513#11 -24926513#11"/>
    </vehicle>
    <vehicle id="45" depart="45.00">
        <route edges="-30073707#1 645363777#1 645363777#2 700632940#1 28496650#4 28496650#5 28496650#6 28496650#7 694201304#0 694201304#1 28496650#10 24667122#33 24667122#34 24667122#35 24667122#36 24667122#37 24667122#38 24667122#39 24667122#40 24667122#41 24667122#42 24667122#43 24667122#44 24667122#45 24667122#46 24667122#47 24667122#48 24667122#49 24667122#50 24667122#51 24667122#52 24667122#53 24667122#54 24667122#55 24667122#56 24667122#57 24667122#58 24667122#59 24667122#60 24667122#61 24667122#62 24667122#63 24667122#64 24667122#65 24667122#66 24667122#67 24667122#68 24667122#69 24667122#70 24667122#71 24667122#72 24667122#73 24667122#74 24667122#75 24667122#76 24667122#77 24667122#78 24667122#79 701330343 4987249#13 4987249#14 4987249#15"/>
    </vehicle>
    <vehicle id="46" depart="46.00">
        <route edges="694204809#5 694204809#6 -645419927#1 -645419927#0 645363763#2 -700632936 24784499#2 24784499#3 24667122#44 24667122#45 24667122#46 24667122#47 24667122#48 24667122#49 771970759 4987249#44 4987249#45 4987249#46 4987249#47 4987249#48 4987249#49 4987249#50 4987249#51 4987249#52 4987249#53 4987249#54 4987249#55 4987249#56 4987249#57 4987249#58 4987249#59 4987249#60 4987249#61 4987249#62 24926493#0 24926493#1"/>
    </vehicle>
    <vehicle id="47" depart="47.00">
        <route edges="-24926579 24926458#10 24926458#11 24926513#11 24926513#12 24926513#13 24926513#14 700840146#0 4987210#2 4987210#3 4987210#4 4987210#5 4987210#6 4987210#7 771403658 700806890#3 28309695#0 28309695#1 28309695#2 28309695#3 28309695#4 28309695#5 28309695#6 28309695#7 28309695#8 28309695#9 28309695#10 28309695#11 28309695#12 28309695#13 28309695#14 28309695#15 28309695#16 28309695#17 28309695#18 28309695#19 28309695#20 24764569#3 24764569#4 24887099#0 24887099#1"/>
    </vehicle>
    <vehicle id="49" depart="49.00">
        <route edges="819350925#1 819350925#2 819350925#3 696072697#4 696072697#5 696072697#6 696072697#7 696072697#8 696072697#9 646445946#0 646445946#1 649608322#1 649608322#2 649608322#3 649608322#4 649608322#5 700148837#1 700148837#2 700148837#3 700148837#4 700148837#5 700148837#6 700148837#7 700148837#8 700148837#9 700148837#10 700148837#11 700148837#12 700148837#13 700148837#14 700148837#15 700148837#16 700148837#17 700148837#18 701330347#8 701330347#9 701330347#10 701330347#11 701330347#12"/>
    </vehicle>
    <vehicle id="50" depart="50.00">
        <route edges="-24887099#3 24887111 28664939#12 33262191 -1131706977#0 24801830#1 24801830#2 24801830#3 24801830#4 24801830#5 24801830#6 24801830#7 4987249#51 4987249#52 4987249#53 4987249#54 4987249#55 4987249#56 4987249#57 4987249#58 4987249#59 4987249#60 4987249#61 4987249#62 4987249#63 4987249#64 4987249#65 4987249#66 4987249#67 4987249#68 4987249#69 4987249#70 4987249#71 4987249#72 4987249#73 4987249#74 4987249#75 4987249#76 161904723 24667122#17 24667122#18 24667122#19 24667122#20 24667122#21 24667122#22 24667122#23 24667122#24 24667122#25 24667122#26 24667122#27 24784553#0 24784553#1 694202023#0 694202023#1 24784553#4 -645419924#2 645419922#0"/>
    </vehicle>
    <vehicle id="51" depart="51.00">
        <route edges="4987249#9 4987249#10 33262187#0 33262187#1 214645594 4987249#7 4987249#8 701330344 24667122#85 24667122#86 24667122#87 24667122#88 24667122#89 24667122#90 24667122#91 24667122#92 24667122#93 890643507 890643506 30037815#0 30037815#1 30037815#2 30037815#3 705492044#0 705492044#1 705492044#2 705492044#3 -30037872#2 -30037872#1 30037872#1"/>
    </vehicle>
    <vehicle id="52" depart="52.00">
        <route edges="-703364305#1 703364305#1 703364305#2 703364305#3 -646964286#1 -646964286#0 890218773#1 890218773#2 890218773#3 890218773#4 890218773#5 890218773#6 890218773#7 843575350 701529973#1 701529973#2 701529973#3 -704539034 25087607#0 25087607#1 24667122#89 24667122#90 24667122#91 24667122#92 24667122#93 890643507 765991599 696072697#12 4987249#0 4987249#1 4987249#2 4987249#3 4987249#4 4987249#5 4987249#6 4987249#7 4987249#8 4987249#9 4987249#10 4987249#11 4987249#12 4987249#13 4987249#14 4987249#15 4987249#16 4987249#17 4987249#18 4987249#19 4987249#20 4987249#21 4987249#22 4987249#23 4987249#24 4987249#25 4987249#26 4987249#27 4987249#28 4987249#29 4987249#30 4987249#31 4987249#32 4987249#33 4987249#34 4987249#35 4987249#36 4987249#37 4987249#38"/>
    </vehicle>
    <vehicle id="53" depart="53.00">
        <route edges="-30985703#2 -30985703#1 -30985703#0 828126964#2 828126964#3 828126964#4 828126964#5 828126964#6 828126964#7 828126964#8 828126964#9 828126964#10 828126964#11 828126964#12 828126964#13 828126964#14 828126964#15 828126964#16 890218773#0 890218773#1 890218773#2 890218773#3 890218773#4 890218773#5 890218773#6 890218773#7 843575350 701529973#1 701529973#2 701529973#3 -704539034 25087607#0 25087607#1 24667122#89 24667122#90 24667122#91 24667122#92 24667122#93 890643507 765991599 696072697#12 4987249#0 4987249#1 4987249#2 4987249#3 4987249#4 4987249#5 4987249#6 4987249#7 4987249#8 4987249#9 4987249#10 4987249#11 4987249#12 4987249#13 4987249#14 4987249#15 4987249#16 4987249#17 4987249#18 4987249#19 4987249#20 4987249#21 4987249#22 4987249#23 4987249#24 4987249#25 4987249#26 4987249#27 4987249#28 4987249#29 4987249#30 4987249#31 4987249#32 4987249#33 4987249#34 4987249#35 4987249#36 4987249#37 4987249#38 4987249#39 4987249#40 4987249#41 4987249#42 4987249#43 4987249#44 4987249#45 4987249#46 4987249#47 4987249#48 4987249#49 4987249#50 4987249#51 4987249#52 4987249#53 4987249#54 4987249#55 4987249#56 4987249#57 4987249#58 4987249#59 4987249#60 4987249#61 4987249#62 4987249#63 4987249#64 4987249#65 4987249#66 4987249#67 4987249#68 4987249#69 4987249#70 4987249#71 4987249#72 4987249#73 4987249#74 4987249#75 4987249#76 4987249#77 4987249#78 4987249#79 4987249#80 4987249#81 4987249#82 4987249#83 4987249#84 4987249#85 4987249#86 4987249#87 4987249#88 4987249#89 4987249#90 4987249#91 25043984#0 25043984#1 25043984#2 25043984#3 24926513#0 24926513#1 24926513#2"/>
    </vehicle>
    <vehicle id="54" depart="54.00">
        <route edges="24926564#0 -24926564#0 26752039#7 26752039#8 26752039#9 26752039#10 26752039#11 26752039#12 700806892#1 700806892#2 700806892#3 700806892#4 700806892#5 27529366#0 27529366#1 27529366#2 27529366#3 27529366#4 4987244#3 4987244#4 4987244#5 4987244#6 24783980#1 24783980#2 24783980#3 24783970#4 24783970#5 24783970#0 24783975#0 24783975#1 770028814#0 770028814#1"/>
    </vehicle>
    <vehicle id="56" depart="56.00">
        <route edges="28309695#18 28309695#19 28309695#20 28309695#21 28309695#22 819350925#2 819350925#3 696072697#4 696072697#5 696072697#6 696072697#7 696072697#8 696072697#9 646445946#0 -645457735#2"/>
    </vehicle>
    <vehicle id="58" depart="58.00">
        <route edges="24667122#16 24667122#17 24667122#18 24667122#19 24667122#20 24667122#21 24667122#22 24667122#23 24667122#24 24667122#25 24667122#26 24667122#27 24667122#28 24667122#29 24667122#30 24667122#31 24667122#32 24667122#33 24667122#34 24667122#35 24667122#36 24667122#37 24667122#38 24667122#39 24667122#40 24667122#41 24667122#42 24667122#43 24667122#44 24667122#45 24667122#46 24667122#47 24667122#48 24667122#49 24667122#50 24667122#51 24667122#52 24667122#53 24667122#54 24667122#55 24667122#56 24667122#57 24667122#58 24667122#59 24667122#60 24667122#61 24667122#62 24667122#63 24667122#64 24667122#65 24667122#66 24667122#67 24667122#68 24667122#69 24667122#70 24667122#71 24667122#72 24667122#73 24667122#74 24667122#75 24667122#76 24667122#77 24667122#78 24667122#79 701330343 4987249#13 4987249#14 4987249#15 4987249#16 4987249#17 4987249#18 4987249#19 4987249#20 4987249#21 4987249#22 4987249#23 4987249#24 4987249#25 4987249#26 4987249#27 4987249#28 4987249#29 4987249#30 4987249#31 4987249#32 4987249#33 4987249#34"/>
    </vehicle>
    <vehicle id="59" depart="59.00">