<?xml version="1.0" encoding="UTF-8"?>
<configuration xmlns:xsi="http://www.w3.org/2001/XMLSchema-instance" xsi:noNamespaceSchemaLocation="http://sumo.dlr.de/xsd/sumoConfiguration.xsd">
    <input>
        <net-file value="sumotestmap.net.xml"/>
        <route-files value="routes.rou.xml"/>
    </input>
    <time>
        <begin value="0"/>
        <end value="100"/>
    </time>
	<output>
        <full-output value = "results.xml"/>
        <emission-output value="emissions.xml"/>
	</output>
</configuration>
